368
GEOMETRY WITH METHYLS
S     -3.6893     40.1137     15.0980
S     12.6799      8.4840      7.4576
S     14.2480     -7.6288      0.9309
S     -2.8328     23.1582      8.9545
S     -3.1506     37.2063     15.1774
S     11.8777     11.3340      7.1152
S     13.1711     -4.7759      0.9960
S     -1.5872     20.4852      8.7449
S     -1.9016     30.7812     17.9254
S      9.6875     17.7799      9.9067
S     12.1879      1.7397     -1.9786
S      0.3061     14.3860      6.0318
S      4.6214     11.6347     10.5489
S      4.1647     37.2604      1.5714
S      5.5361     20.8286      5.5657
S      6.2478     -5.0667     13.5762
S      4.2716     14.4093      9.7022
S      4.3326     34.2788      1.0448
S      6.2603     18.1110      6.3504
S      5.8487     -2.1635     14.1462
S      2.2390     19.8212      5.2996
S      6.5366     28.6192     -2.8191
S      7.9613     12.3729     10.4184
S      4.0727      3.3999     18.4344
S     -1.1900     28.8293     14.1564
S      9.1330     19.7891      5.9424
S     11.3571      3.9143      1.6000
S      0.8664     12.6616     10.0031
S      1.4957     22.5755      8.9736
S      6.4683     25.9297      0.6301
S      8.3973      9.9662      6.8289
S      3.4907      6.5270     14.9843
O     -2.4767     37.0112     18.9995
O     11.4143     11.8933     10.9231
O     13.0086     -4.6271     -2.8030
O     -1.0402     20.7252      4.9367
O      3.9715     13.6990      5.9875
O      5.6688     34.6777     -2.4458
O      6.0717     18.7719     10.1176
O      4.6624     -2.6475     17.6746
N     -3.1342     38.6060     17.3870
N     12.0120     10.2245      9.4437
N     13.5091     -6.0919     -1.1624
N     -1.6042     22.0949      6.7593
N     -2.1861     32.3646     17.8052
N     10.2150     16.2629      9.7468
N     12.3945      0.1828     -1.7121
N      0.2072     15.9598      6.1122
N     -1.6443     30.3673     16.4266
N      9.5064     18.2204      8.3710
N     11.8993      2.2637     -0.4608
N      0.4208     14.0261      7.5661
N      4.1170     12.5197      7.9623
N      4.9781     36.0406     -0.7084
N      6.0313     19.9451      8.0938
N      5.7010     -3.8514     15.9973
N      2.9248     18.4593      5.7059
N      6.1560     30.2084     -2.4326
N      7.5765     13.8864     10.0683
N      4.4564      1.9488     17.8479
N      1.8780     20.4631      6.7458
N      6.2526     27.8468     -1.5025
N      7.9744     11.7629      8.9149
N      4.0515      4.2771     17.0801
C     -1.0337     28.7069      9.0197
C      9.6539     20.2751      0.8922
C     12.1019      4.5574      6.5606
C      0.8624     12.7462     14.9253
C      1.2002     28.8784     10.2837
C      7.3462     19.4267      1.3376
C      9.7998      3.6578      5.9321
C      3.3111     13.1673     14.2936
C     -2.0480     40.6771     18.3367
C     10.6924      8.5635     10.5932
C     12.3367     -7.8165     -2.4629
C     -2.1883     24.0260      5.3029
C     -3.2310     39.7156     18.4063
C     12.0691      9.2236     10.4657
C     13.6606     -7.1503     -2.0510
C     -1.2103     23.3634      6.1428
C     -2.7075     37.3068     17.8406
C     11.6256     11.5203      9.7808
C     13.1393     -4.7901     -1.5908
C     -1.2436     20.8687      6.1343
C     -3.3386     38.7335     15.9701
C     12.2134      9.9346      8.0919
C     13.6331     -6.2751      0.1816
C     -1.9350     22.0416      8.1188
C     -2.6416     36.3936     16.6563
C     11.5174     12.3699      8.5521
C     12.8783     -3.8420     -0.4539
C     -0.9871     19.8542      7.2210
C     -2.4094     35.0436     16.7894
C     10.9836     13.6271      8.6245
C     12.6406     -2.4722     -0.6095
C     -0.4243     18.6501      6.9978
C     -1.6488     32.9022     13.7480
C     10.5453     15.8921      5.6602
C     11.8767     -0.0467      2.2711
C     -0.1444     16.5884     10.1711
C     -2.0191     34.0248     14.4969
C     10.8794     14.7673      6.4723
C     12.1028     -1.2539      1.5548
C     -0.3313     17.6498      9.2756
C     -2.2050     33.9689     15.8967
C     10.8791     14.7910      7.8660
C     12.3710     -1.3023      0.1872
C     -0.1760     17.5704      7.8807
C     -2.1029     32.6790     16.5054
C     10.3823     16.0487      8.4341
C     12.2727     -0.0196     -0.4167
C      0.0827     16.2520      7.4202
C     -1.8064     31.5162     15.6842
C      9.9310     17.1720      7.6344
C     11.9232      1.1888      0.3047
C      0.2102     15.1727      8.2871
C     -1.6038     31.6126     14.2651
C      9.9679     17.1069      6.1437
C     11.8678      1.2187      1.6966
C      0.2471     15.3012      9.7005
C     -0.7168     22.1073     13.2495
C      8.5835     25.9771      4.8578
C     10.5382     10.3303      2.4616
C      1.5036      6.8252     10.5930
C      1.5187     23.1153     13.8860
C      6.1791     25.4389      5.6562
C      8.2533      9.4473      1.9824
C      3.9280      7.6424     10.0903
C      3.0294     10.3975      7.8335
C      6.3390     37.8572     -1.8729
C      6.9353     21.8555      9.2794
C      4.1404     -5.6418     16.4688
C      4.1312     11.2562      7.2536
C      4.9206     37.1704     -1.6918
C      5.6144     21.1564      8.8460
C      5.5294     -5.1620     16.6263
C      3.9742     13.6829      7.2121
C      5.3218     34.7847     -1.2911
C      6.2225     18.7701      8.8767
C      5.1787     -2.6716     16.5822
C      4.3841     12.6609      9.2903
C      4.5218     36.0463      0.5520
C      5.9516     19.7540      6.7566
C      5.9735     -3.7873     14.6439
C      3.8848     14.8780      8.0207
C      5.0216     33.6821     -0.3751
C      6.4433     17.6252      7.9644
C      5.2295     -1.5561     15.6863
C      3.7300     16.0759      7.4271
C      5.2763     32.4306     -0.8011
C      6.8189     16.4315      8.5371
C      4.9589     -0.3021     16.1773
C      2.8751     18.7973      9.8543
C      5.1484     29.6050      1.5605
C      6.8452     13.7843      5.9757
C      4.6233      2.7428     13.8014
C      3.3517     17.6680      9.3295
C      4.8187     30.8261      1.0104
C      6.6601     14.9939      6.5828
C      4.8856      1.4772     14.2815
C      3.3667     17.3476      7.9589
C      5.1721     31.1301     -0.2867
C      6.9400     15.1424      7.9721
C      4.7944      1.0119     15.6305
C      3.0347     18.4685      7.1133
C      5.7885     30.1005     -1.0828
C      7.2054     13.9608      8.7357
C      4.4773      2.0941     16.4970
C      2.4346     19.6882      7.6855
C      5.7943     28.7972     -0.6194
C      7.5294     12.7594      8.0594
C      4.2257      3.4738     16.0602
C      2.3699     19.9221      9.0968
C      5.6851     28.5890      0.7729
C      7.3128     12.5824      6.6697
C      4.2492      3.8599     14.6632
C      0.9827     23.3184     10.3914
C      6.8918     25.1983      2.0922
C      8.8936      9.2506      5.3363
C      3.1739      7.3994     13.5993
C      0.4702     24.6375     10.7917
C      7.4029     23.8972      2.5564
C      9.5196      7.9842      4.9076
C      2.7004      8.7187     13.2925
C      0.2855     25.8129     10.0156
C      7.7345     22.7077      1.7974
C      9.9436      6.8497      5.6664
C      2.6093      9.9358     14.0415
C     -0.1956     26.9309     10.7559
C      8.1263     21.5868      2.5324
C     10.5970      5.8934      4.9067
C      2.1655     11.0432     13.3473
C     -0.3175     28.4095     10.3315
C      8.5080     20.2486      1.9811
C     11.0506      4.4838      5.4070
C      1.8917     12.5352     13.8123
C     -0.9971     29.0480     11.5390
C      8.9942     19.5821      3.3027
C     11.6224      3.8946      4.1292
C      1.4019     13.1821     12.5509
C     -1.3732     30.3219     11.9962
C      9.3625     18.3070      3.8364
C     11.8149      2.5500      3.7555
C      1.0381     14.3933     11.9640
C     -1.4565     30.4249     13.4345
C      9.5744     18.2716      5.2586
C     11.6737      2.4557      2.3878
C      0.7806     14.3030     10.5903
C     -1.0299     28.1519     12.5721
C      8.8226     20.4553      4.3919
C     11.3668      4.7709      3.0431
C      1.2658     12.1678     11.5728
C     -0.5416     26.8453     12.1280
C      8.2440     21.6600      4.0010
C     10.7472      6.0308      3.4865
C      1.7655     10.9142     11.9650
C     -0.4047     25.5854     12.8776
C      7.8712     22.8393      4.7234
C     10.2597      7.1496      2.7704
C      1.8406      9.7178     11.2711
C      0.1456     24.5177     12.1975
C      7.3999     23.9559      4.0224
C      9.6881      8.1287      3.4547
C      2.4953      8.6964     11.8900
C      0.4571     23.0431     12.7313
C      7.1652     25.3569      4.4397
C      9.3675      9.5260      2.9636
C      2.8228      7.4292     11.1927
C      1.0491     22.4013     11.5108
C      6.6456     26.0174      3.2058
C      8.8501     10.1389      4.2905
C      3.2985      6.6193     12.3985
C      1.6564     21.1856     11.1181
C      6.2100     27.2783      2.8361
C      8.3415     11.4091      4.6309
C      3.6213      5.3281     12.7134
C      1.8251     21.0507      9.7319
C      6.0661     27.4044      1.4512
C      7.8452     11.4088      5.9606
C      3.8857      5.1039     14.0545
H     -1.8963     41.0719     17.3115
H      9.9824      9.3955     10.7396
H     11.5170     -7.1311     -2.7717
H     -3.0377     24.4377      5.8687
H     -2.1903     41.4615     19.0936
H     10.3074      7.9067      9.7527
H     11.9789     -8.5469     -1.7266
H     -2.4563     23.2836      4.5132
H     -1.1844     40.0457     18.6287
H     10.6243      7.9369     11.4629
H     12.6868     -8.3771     -3.3870
H     -1.7321     24.8568      4.7259
H     -4.2095     40.2394     18.2961
H     12.9010      8.5379     10.1674
H     14.1324     -7.9880     -1.6034
H     -0.3532     23.1301      5.5287
H     -3.2538     39.2067     19.4172
H     12.4479      9.7678     11.3470
H     14.2973     -6.8337     -2.9208
H     -0.8887     23.9889      6.9700
H     -2.3033     34.7305     17.8344
H     10.8725     13.9259      9.6527
H     12.6487     -2.2487     -1.6902
H     -0.3307     18.4235      5.9172
H     -1.4821     32.9621     12.6452
H     10.7241     15.8665      4.5779
H     11.8389     -0.0355      3.3706
H     -0.4146     16.5817     11.2152
H     -2.0354     34.9892     14.0073
H     11.1735     13.8243      6.0180
H     12.0936     -2.2411      2.0202
H     -0.5471     18.6381      9.7425
H      3.3022      9.3807      7.5159
H      6.3560     38.7909     -1.3350
H      6.8749     22.9566      9.5757
H      4.2052     -6.7012     16.7782
H      3.0306     10.3943      8.9078
H      7.0179     37.1754     -1.3951
H      7.6501     21.6201      8.4837
H      3.7996     -5.5489     15.4424
H      2.0064     10.5847      7.5259
H      6.5719     37.9898     -2.9417
H      7.2211     21.2845     10.1426
H      3.5194     -5.0992     17.1894
H      3.9076     11.4323      6.1884
H      4.6404     36.8082     -2.7032
H      5.0541     20.8208      9.7357
H      5.7134     -4.9839     17.6903
H      5.0733     10.8222      7.5556
H      4.2199     37.8665     -1.2121
H      4.9544     21.7058      8.1305
H      6.1694     -5.8160     16.0139
H      3.6615     15.8679      6.3285
H      5.7101     32.4445     -1.9136
H      6.9486     16.4846      9.5943
H      4.7301     -0.3306     17.2848
H      2.8268     18.7932     10.9519
H      4.8224     29.3705      2.5794
H      6.8181     13.7673      4.8794
H      4.8779      2.9183     12.7758
H      3.5448     16.8404     10.0069
H      4.3694     31.5018      1.7449
H      6.4199     15.8170      5.9166
H      5.2101      0.7840     13.4899
H      0.3032     25.6598      8.9461
H      7.7335     22.7387      0.6833
H     10.0176      6.8289      6.7697
H      2.7808      9.8747     15.1232
H     -1.5308     31.1695     11.2859
H      9.6874     17.4156      3.3009
H     12.0539      1.7409      4.3991
H      1.1523     15.4205     12.3673
H     -0.7680     25.4122     13.8647
H      7.9819     22.9173      5.8178
H     10.3447      7.1213      1.6850
H      1.4953      9.6873     10.2350
H      1.9290     20.4255     11.8271
H      5.7573     28.0116      3.5045
H      8.1925     12.2607      3.9538
H      3.8399      4.4989     12.0238
H     -0.7940     29.7301      8.6948
H     -2.1200     28.6135      9.1656
H     -0.7041     27.9916      8.2517
H     10.4513     20.9604      1.2156
H     10.0673     19.2631      0.7702
H      9.2404     20.6203     -0.0669
H     12.9878      3.9652      6.2877
H     12.3966      5.6049      6.7219
H     11.6615      4.1540      7.4843
H      0.0898     13.4498     14.5817
H      1.3630     13.1568     15.8146
H      0.3947     11.7835     15.1795
H      1.7539     28.2556      9.5657
H      1.2489     29.9314      9.9696
H      1.6482     28.7726     11.2827
H      7.7595     18.5412      0.8325
H      6.8163     20.0528      0.6048
H      6.6447     19.1072      2.1223
H     10.0035      2.5814      5.8331
H      8.9120      3.9192      5.3374
H      9.6175      3.9008      6.9893
H      3.7673     13.7212     13.4599
H      3.1404     13.8509     15.1383
H      3.9854     12.3571     14.6081
H     -1.6195     22.7121     13.4204
H     -0.4138     21.6265     14.1913
H     -0.9300     21.3351     12.4956
H      8.5587     27.0691      4.7282
H      8.7924     25.7374      5.9109
H      9.3724     25.5501      4.2212
H     10.2571     11.3924      2.4076
H     11.3876     10.2103      3.1500
H     10.8245      9.9754      1.4605
H      1.4609      5.7480     10.8120
H      1.4922      6.9787      9.5038
H      0.6336      7.3256     11.0430
H      1.0429     23.5058     14.7976
H      1.9161     22.1085     14.0821
H      2.3408     23.7822     13.5870
H      5.8102     26.4699      5.7603
H      6.7058     25.1433      6.5756
H      5.3298     24.7609      5.4861
H      7.4691      8.7808      2.3707
H      8.6320      9.0512      1.0286
H      7.8345     10.4517      1.8218
H      3.4460      7.8228      9.1181
H      4.5501      8.5092     10.3576
H      4.5593      6.7439     10.0255
